version 2
run General-0-20220303-15:14:27-20732
attr configname General
attr datetime 20220303-15:14:27
attr experiment General
attr inifile omnetpp.ini
attr iterationvars $0=123
attr iterationvarsf 123-
attr measurement $0=123
attr network PolicyA
attr processid 20732
attr repetition 0
attr replication #0
attr resultdir results
attr runnumber 0
attr seedset 123

statistic PolicyA.queue "inter arrival times"
field count 370
field mean 116.6631972973
field stddev 119.98188300105
field min 0
field max 744.569
field sum 43165.383
field sqrsum 10347807.273031
bin	-inf	0
bin	0	27
bin	10	23
bin	20	21
bin	30	23
bin	40	25
bin	50	26
bin	60	25
bin	70	16
bin	80	17
bin	90	25
bin	100	13
bin	110	10
bin	120	7
bin	130	10
bin	140	9
bin	150	7
bin	160	8
bin	170	4
bin	180	5
bin	190	6
bin	200	5
bin	210	5
bin	220	5
bin	230	2
bin	240	4
bin	250	3
bin	260	3
bin	270	1
bin	280	3
bin	290	1
bin	300	3
bin	310	4
bin	320	2
bin	330	1
bin	340	1
bin	350	1
bin	360	1
bin	370	0
bin	380	2
bin	390	0
bin	400	0
bin	410	2
bin	420	1
bin	430	0
bin	440	0
bin	450	0
bin	460	1
bin	470	1
bin	480	0
bin	490	3
bin	500	1
bin	510	0
bin	520	1
bin	530	2
bin	540	1
bin	550	0
bin	560	0
bin	570	0
bin	580	0
bin	590	0
bin	600	0
bin	610	1
bin	620	0
bin	630	0
bin	640	1
bin	650	0
bin	660	0
bin	670	0
bin	680	0
bin	690	0
bin	700	0
bin	710	0
bin	720	0
bin	730	0
bin	740	1
bin	750	0
bin	760	0
bin	770	0
bin	780	0
bin	790	0
bin	800	0
bin	810	0
statistic PolicyA.queue "processing times"
field count 367
field mean 252.43702179837
field stddev 206.27488165697
field min 30.217
field max 1360.387
field sum 92644.387
field sqrsum 38959926.750365
bin	-inf	0
bin	0	0
bin	10	0
bin	20	0
bin	30	12
bin	40	16
bin	50	14
bin	60	9
bin	70	10
bin	80	9
bin	90	9
bin	100	8
bin	110	16
bin	120	12
bin	130	14
bin	140	5
bin	150	14
bin	160	11
bin	170	6
bin	180	12
bin	190	12
bin	200	9
bin	210	3
bin	220	10
bin	230	12
bin	240	6
bin	250	5
bin	260	8
bin	270	5
bin	280	6
bin	290	4
bin	300	7
bin	310	7
bin	320	8
bin	330	7
bin	340	1
bin	350	2
bin	360	6
bin	370	5
bin	380	1
bin	390	3
bin	400	0
bin	410	2
bin	420	2
bin	430	2
bin	440	4
bin	450	2
bin	460	3
bin	470	2
bin	480	0
bin	490	1
bin	500	1
bin	510	4
bin	520	5
bin	530	1
bin	540	2
bin	550	5
bin	560	2
bin	570	2
bin	580	0
bin	590	0
bin	600	2
bin	610	3
bin	620	1
bin	630	2
bin	640	2
bin	650	1
bin	660	0
bin	670	0
bin	680	0
bin	690	0
bin	700	1
bin	710	0
bin	720	0
bin	730	1
bin	740	0
bin	750	0
bin	760	0
bin	770	0
bin	780	0
bin	790	0
bin	800	0
bin	810	0
bin	820	1
bin	830	1
bin	840	0
bin	850	0
bin	860	0
bin	870	0
bin	880	0
bin	890	0
bin	900	1
bin	910	0
bin	920	1
bin	930	0
bin	940	0
bin	950	0
bin	960	0
bin	970	1
bin	980	0
bin	990	1
bin	1000	0
bin	1010	0
bin	1020	0
bin	1030	0
bin	1040	0
bin	1050	0
bin	1060	0
bin	1070	0
bin	1080	0
bin	1090	1
bin	1100	0
bin	1110	0
bin	1120	0
bin	1130	0
bin	1140	0
bin	1150	0
bin	1160	0
bin	1170	0
bin	1180	0
bin	1190	0
bin	1200	1
bin	1210	0
bin	1220	1
bin	1230	0
bin	1240	0
bin	1250	0
bin	1260	0
bin	1270	0
bin	1280	0
bin	1290	0
bin	1300	0
bin	1310	0
bin	1320	0
bin	1330	0
bin	1340	0
bin	1350	0
bin	1360	1
bin	1370	0
bin	1380	0
bin	1390	0
bin	1400	0
bin	1410	0
bin	1420	0
bin	1430	0
bin	1440	0
bin	1450	0
bin	1460	0
bin	1470	0
bin	1480	0
bin	1490	0
bin	1500	0
bin	1510	0
bin	1520	0
bin	1530	0
bin	1540	0
bin	1550	0
bin	1560	0
bin	1570	0
bin	1580	0
bin	1590	0
bin	1600	0
bin	1610	0
bin	1620	0
bin	1630	0
bin	1640	0
bin	1650	0
bin	1660	0
bin	1670	0
bin	1680	0
bin	1690	0
bin	1700	0

