version 2
run General-0-20211229-04:25:10-28528
attr configname General
attr datetime 20211229-04:25:10
attr experiment General
attr inifile omnetpp.ini
attr iterationvars ""
attr iterationvarsf ""
attr measurement ""
attr network TheCarrefour
attr processid 28528
attr repetition 0
attr replication #0
attr resultdir results
attr runnumber 0
attr seedset 0

statistic TheCarrefour.queue "interarrival times"
field count 13
field mean 1.031
field stddev 0.58048126584757
field min 0
field max 1.952
field sum 13.403
field sqrsum 17.861995
bin	-inf	0
bin	-0.976	0
bin	-0.84586666666667	0
bin	-0.71573333333333	0
bin	-0.5856	0
bin	-0.45546666666667	0
bin	-0.32533333333333	0
bin	-0.1952	0
bin	-0.065066666666667	1
bin	0.065066666666667	0
bin	0.1952	0
bin	0.32533333333333	0
bin	0.45546666666667	2
bin	0.5856	0
bin	0.71573333333333	2
bin	0.84586666666667	2
bin	0.976	2
bin	1.1061333333333	0
bin	1.2362666666667	1
bin	1.3664	0
bin	1.4965333333333	0
bin	1.6266666666667	0
bin	1.7568	2
bin	1.8869333333333	1
bin	2.0170666666667	0
bin	2.1472	0
bin	2.2773333333333	0
bin	2.4074666666667	0
bin	2.5376	0
bin	2.6677333333333	0
bin	2.7978666666667	0
bin	2.928	0
statistic TheCarrefour.till_1 "interarrival times"
field count 13
field mean 1.031
field stddev 0.58048126584757
field min 0
field max 1.952
field sum 13.403
field sqrsum 17.861995
bin	-inf	0
bin	-0.976	0
bin	-0.84586666666667	0
bin	-0.71573333333333	0
bin	-0.5856	0
bin	-0.45546666666667	0
bin	-0.32533333333333	0
bin	-0.1952	0
bin	-0.065066666666667	1
bin	0.065066666666667	0
bin	0.1952	0
bin	0.32533333333333	0
bin	0.45546666666667	2
bin	0.5856	0
bin	0.71573333333333	2
bin	0.84586666666667	2
bin	0.976	2
bin	1.1061333333333	0
bin	1.2362666666667	1
bin	1.3664	0
bin	1.4965333333333	0
bin	1.6266666666667	0
bin	1.7568	2
bin	1.8869333333333	1
bin	2.0170666666667	0
bin	2.1472	0
bin	2.2773333333333	0
bin	2.4074666666667	0
bin	2.5376	0
bin	2.6677333333333	0
bin	2.7978666666667	0
bin	2.928	0

