version 2
run General-0-20220624-05:29:28-23484
attr configname General
attr datetime 20220624-05:29:28
attr experiment General
attr inifile omnetpp.ini
attr iterationvars $0=879
attr iterationvarsf 879-
attr measurement $0=879
attr network PolicyB
attr processid 23484
attr repetition 0
attr replication #0
attr resultdir results
attr runnumber 0
attr seedset 879

statistic PolicyB.source "Queue selection distribution"
field count 306
field mean 4.8986928104575
field stddev 2.9630840585633
field min 0
field max 9
field sum 1499
field sqrsum 10021
bin	-inf	0
bin	0	25
bin	1	28
bin	2	33
bin	3	25
bin	4	26
bin	5	23
bin	6	33
bin	7	36
bin	8	32
bin	9	45
bin	10	0
bin	11	0
bin	12	0
statistic PolicyB.source "Till selection distribution"
field count 1517
field mean 5.6466710613052
field stddev 2.8570395965936
field min 0
field max 9
field sum 8566
field sqrsum 60744
bin	-inf	0
bin	0	98
bin	1	100
bin	2	83
bin	3	112
bin	4	114
bin	5	118
bin	6	102
bin	7	268
bin	8	268
bin	9	254
bin	10	0
bin	11	0
bin	12	0
statistic PolicyB.source "IA client generation times"
field count 1823
field mean 23.654619857378
field stddev 22.566835705653
field min 0
field max 188.595
field sum 43122.372
field sqrsum 1947918.81541
bin	-inf	0
bin	0	604
bin	10	394
bin	20	307
bin	30	194
bin	40	111
bin	50	70
bin	60	57
bin	70	37
bin	80	14
bin	90	13
bin	100	9
bin	110	5
bin	120	4
bin	130	2
bin	140	0
bin	150	0
bin	160	0
bin	170	1
bin	180	1
bin	190	0
statistic PolicyB.queue0 "local interarrival times"
field count 123
field mean 348.36017886179
field stddev 274.20979498806
field min 10.246
field max 1440.15
field sum 42848.302
field sqrsum 24099945.572066
bin	-inf	0
bin	0	0
bin	10	2
bin	20	1
bin	30	1
bin	40	3
bin	50	1
bin	60	0
bin	70	2
bin	80	2
bin	90	4
bin	100	1
bin	110	2
bin	120	5
bin	130	6
bin	140	3
bin	150	3
bin	160	3
bin	170	3
bin	180	2
bin	190	3
bin	200	0
bin	210	3
bin	220	2
bin	230	3
bin	240	3
bin	250	2
bin	260	0
bin	270	4
bin	280	2
bin	290	3
bin	300	2
bin	310	1
bin	320	0
bin	330	0
bin	340	3
bin	350	0
bin	360	1
bin	370	3
bin	380	1
bin	390	1
bin	400	2
bin	410	1
bin	420	3
bin	430	0
bin	440	3
bin	450	0
bin	460	3
bin	470	1
bin	480	0
bin	490	1
bin	500	0
bin	510	3
bin	520	0
bin	530	1
bin	540	1
bin	550	1
bin	560	0
bin	570	1
bin	580	0
bin	590	0
bin	600	2
bin	610	1
bin	620	0
bin	630	1
bin	640	0
bin	650	1
bin	660	0
bin	670	0
bin	680	1
bin	690	2
bin	700	1
bin	710	0
bin	720	1
bin	730	0
bin	740	0
bin	750	0
bin	760	0
bin	770	2
bin	780	1
bin	790	0
bin	800	0
bin	810	0
bin	820	1
bin	830	0
bin	840	0
bin	850	2
bin	860	0
bin	870	0
bin	880	0
bin	890	0
bin	900	0
bin	910	0
bin	920	1
bin	930	0
bin	940	0
bin	950	0
bin	960	0
bin	970	0
bin	980	0
bin	990	0
bin	1000	0
bin	1010	0
bin	1020	0
bin	1030	0
bin	1040	0
bin	1050	0
bin	1060	0
bin	1070	0
bin	1080	0
bin	1090	0
bin	1100	0
bin	1110	1
bin	1120	0
bin	1130	0
bin	1140	0
bin	1150	0
bin	1160	0
bin	1170	1
bin	1180	0
bin	1190	0
bin	1200	0
bin	1210	0
bin	1220	0
bin	1230	0
bin	1240	0
bin	1250	0
bin	1260	0
bin	1270	0
bin	1280	0
bin	1290	1
bin	1300	0
bin	1310	0
bin	1320	0
bin	1330	0
bin	1340	0
bin	1350	0
bin	1360	0
bin	1370	0
bin	1380	0
bin	1390	0
bin	1400	0
bin	1410	0
bin	1420	0
bin	1430	0
bin	1440	1
bin	1450	0
bin	1460	0
bin	1470	0
bin	1480	0
bin	1490	0
bin	1500	0
bin	1510	0
bin	1520	0
bin	1530	0
bin	1540	0
bin	1550	0
bin	1560	0
bin	1570	0
bin	1580	0
bin	1590	0
bin	1600	0
bin	1610	0
bin	1620	0
bin	1630	0
bin	1640	0
bin	1650	0
bin	1660	0
bin	1670	0
bin	1680	0
bin	1690	0
bin	1700	0
bin	1710	0
bin	1720	0
bin	1730	0
bin	1740	0
bin	1750	0
bin	1760	0
bin	1770	0
bin	1780	0
bin	1790	0
bin	1800	0
statistic PolicyB.queue0 "processing times"
field count 123
field mean 293.36262601626
field stddev 286.69834722749
field min 31.474
field max 1840.39
field sum 36083.603
field sqrsum 20613485.493171
bin	-inf	0
bin	0	0
bin	10	0
bin	20	0
bin	30	7
bin	40	6
bin	50	6
bin	60	4
bin	70	5
bin	80	5
bin	90	1
bin	100	2
bin	110	2
bin	120	0
bin	130	0
bin	140	3
bin	150	7
bin	160	1
bin	170	5
bin	180	3
bin	190	2
bin	200	2
bin	210	2
bin	220	5
bin	230	0
bin	240	2
bin	250	4
bin	260	2
bin	270	2
bin	280	3
bin	290	0
bin	300	0
bin	310	4
bin	320	0
bin	330	2
bin	340	0
bin	350	0
bin	360	3
bin	370	1
bin	380	0
bin	390	1
bin	400	1
bin	410	1
bin	420	1
bin	430	0
bin	440	0
bin	450	2
bin	460	2
bin	470	1
bin	480	2
bin	490	0
bin	500	0
bin	510	0
bin	520	2
bin	530	1
bin	540	0
bin	550	1
bin	560	2
bin	570	0
bin	580	2
bin	590	0
bin	600	0
bin	610	0
bin	620	0
bin	630	0
bin	640	2
bin	650	0
bin	660	0
bin	670	1
bin	680	1
bin	690	2
bin	700	1
bin	710	0
bin	720	0
bin	730	0
bin	740	0
bin	750	1
bin	760	0
bin	770	0
bin	780	0
bin	790	0
bin	800	0
bin	810	0
bin	820	0
bin	830	0
bin	840	0
bin	850	0
bin	860	0
bin	870	0
bin	880	0
bin	890	0
bin	900	0
bin	910	0
bin	920	0
bin	930	0
bin	940	0
bin	950	0
bin	960	0
bin	970	1
bin	980	0
bin	990	0
bin	1000	0
bin	1010	0
bin	1020	0
bin	1030	0
bin	1040	0
bin	1050	0
bin	1060	0
bin	1070	0
bin	1080	1
bin	1090	0
bin	1100	0
bin	1110	0
bin	1120	0
bin	1130	0
bin	1140	0
bin	1150	0
bin	1160	0
bin	1170	0
bin	1180	0
bin	1190	0
bin	1200	0
bin	1210	1
bin	1220	0
bin	1230	0
bin	1240	0
bin	1250	0
bin	1260	0
bin	1270	0
bin	1280	0
bin	1290	0
bin	1300	0
bin	1310	0
bin	1320	0
bin	1330	0
bin	1340	0
bin	1350	0
bin	1360	1
bin	1370	0
bin	1380	0
bin	1390	0
bin	1400	0
bin	1410	0
bin	1420	0
bin	1430	0
bin	1440	0
bin	1450	0
bin	1460	0
bin	1470	0
bin	1480	0
bin	1490	0
bin	1500	0
bin	1510	0
bin	1520	0
bin	1530	0
bin	1540	0
bin	1550	0
bin	1560	0
bin	1570	0
bin	1580	0
bin	1590	0
bin	1600	0
bin	1610	0
bin	1620	0
bin	1630	0
bin	1640	0
bin	1650	0
bin	1660	0
bin	1670	0
bin	1680	0
bin	1690	0
bin	1700	0
bin	1710	0
bin	1720	0
bin	1730	0
bin	1740	0
bin	1750	0
bin	1760	0
bin	1770	0
bin	1780	0
bin	1790	0
bin	1800	0
bin	1810	0
bin	1820	0
bin	1830	0
bin	1840	1
bin	1850	0
bin	1860	0
bin	1870	0
bin	1880	0
bin	1890	0
bin	1900	0
bin	1910	0
bin	1920	0
bin	1930	0
bin	1940	0
bin	1950	0
bin	1960	0
bin	1970	0
bin	1980	0
bin	1990	0
bin	2000	0
bin	2010	0
bin	2020	0
bin	2030	0
bin	2040	0
bin	2050	0
bin	2060	0
bin	2070	0
bin	2080	0
bin	2090	0
bin	2100	0
bin	2110	0
bin	2120	0
bin	2130	0
bin	2140	0
bin	2150	0
bin	2160	0
bin	2170	0
bin	2180	0
bin	2190	0
bin	2200	0
bin	2210	0
bin	2220	0
bin	2230	0
bin	2240	0
bin	2250	0
bin	2260	0
bin	2270	0
bin	2280	0
bin	2290	0
bin	2300	0
statistic PolicyB.queue1 "local interarrival times"
field count 128
field mean 336.279328125
field stddev 276.71304055871
field min 0.204
field max 1424.096
field sum 43043.754
field sqrsum 24199128.240634
bin	-inf	0
bin	0	3
bin	10	1
bin	20	0
bin	30	3
bin	40	1
bin	50	2
bin	60	3
bin	70	3
bin	80	1
bin	90	3
bin	100	5
bin	110	1
bin	120	1
bin	130	6
bin	140	3
bin	150	3
bin	160	3
bin	170	0
bin	180	4
bin	190	2
bin	200	3
bin	210	3
bin	220	4
bin	230	2
bin	240	3
bin	250	6
bin	260	3
bin	270	1
bin	280	1
bin	290	0
bin	300	0
bin	310	0
bin	320	0
bin	330	1
bin	340	2
bin	350	3
bin	360	1
bin	370	1
bin	380	4
bin	390	0
bin	400	0
bin	410	3
bin	420	3
bin	430	0
bin	440	2
bin	450	1
bin	460	2
bin	470	1
bin	480	1
bin	490	2
bin	500	2
bin	510	0
bin	520	1
bin	530	0
bin	540	2
bin	550	2
bin	560	2
bin	570	1
bin	580	1
bin	590	0
bin	600	1
bin	610	1
bin	620	0
bin	630	1
bin	640	0
bin	650	0
bin	660	0
bin	670	0
bin	680	0
bin	690	0
bin	700	1
bin	710	1
bin	720	0
bin	730	0
bin	740	0
bin	750	1
bin	760	1
bin	770	0
bin	780	0
bin	790	0
bin	800	0
bin	810	0
bin	820	0
bin	830	0
bin	840	1
bin	850	0
bin	860	0
bin	870	0
bin	880	0
bin	890	0
bin	900	0
bin	910	0
bin	920	0
bin	930	0
bin	940	2
bin	950	0
bin	960	0
bin	970	0
bin	980	0
bin	990	0
bin	1000	0
bin	1010	1
bin	1020	0
bin	1030	0
bin	1040	0
bin	1050	1
bin	1060	0
bin	1070	0
bin	1080	0
bin	1090	1
bin	1100	0
bin	1110	1
bin	1120	0
bin	1130	0
bin	1140	0
bin	1150	0
bin	1160	0
bin	1170	0
bin	1180	0
bin	1190	0
bin	1200	0
bin	1210	0
bin	1220	0
bin	1230	0
bin	1240	0
bin	1250	0
bin	1260	0
bin	1270	0
bin	1280	1
bin	1290	0
bin	1300	0
bin	1310	0
bin	1320	0
bin	1330	0
bin	1340	0
bin	1350	0
bin	1360	0
bin	1370	0
bin	1380	0
bin	1390	0
bin	1400	0
bin	1410	0
bin	1420	1
bin	1430	0
bin	1440	0
bin	1450	0
bin	1460	0
bin	1470	0
bin	1480	0
bin	1490	0
bin	1500	0
bin	1510	0
bin	1520	0
bin	1530	0
bin	1540	0
bin	1550	0
bin	1560	0
bin	1570	0
bin	1580	0
bin	1590	0
bin	1600	0
bin	1610	0
bin	1620	0
bin	1630	0
bin	1640	0
bin	1650	0
bin	1660	0
bin	1670	0
bin	1680	0
bin	1690	0
bin	1700	0
bin	1710	0
bin	1720	0
bin	1730	0
bin	1740	0
bin	1750	0
bin	1760	0
bin	1770	0
bin	1780	0
bin	1790	0
statistic PolicyB.queue1 "processing times"
field count 127
field mean 287.94669291339
field stddev 273.37921609876
field min 32.187
field max 1285.386
field sum 36569.23
field sqrsum 19946749.51103
bin	-inf	0
bin	0	0
bin	10	0
bin	20	0
bin	30	7
bin	40	8
bin	50	5
bin	60	2
bin	70	5
bin	80	2
bin	90	5
bin	100	3
bin	110	3
bin	120	3
bin	130	3
bin	140	2
bin	150	2
bin	160	2
bin	170	6
bin	180	6
bin	190	1
bin	200	3
bin	210	5
bin	220	2
bin	230	0
bin	240	2
bin	250	3
bin	260	2
bin	270	2
bin	280	1
bin	290	2
bin	300	0
bin	310	0
bin	320	1
bin	330	2
bin	340	2
bin	350	0
bin	360	3
bin	370	1
bin	380	1
bin	390	0
bin	400	1
bin	410	0
bin	420	1
bin	430	0
bin	440	1
bin	450	1
bin	460	0
bin	470	3
bin	480	1
bin	490	0
bin	500	1
bin	510	1
bin	520	2
bin	530	0
bin	540	0
bin	550	0
bin	560	0
bin	570	0
bin	580	1
bin	590	1
bin	600	2
bin	610	1
bin	620	1
bin	630	0
bin	640	0
bin	650	0
bin	660	1
bin	670	1
bin	680	0
bin	690	0
bin	700	0
bin	710	0
bin	720	0
bin	730	0
bin	740	0
bin	750	0
bin	760	0
bin	770	0
bin	780	0
bin	790	0
bin	800	0
bin	810	0
bin	820	0
bin	830	0
bin	840	0
bin	850	1
bin	860	0
bin	870	0
bin	880	0
bin	890	0
bin	900	0
bin	910	0
bin	920	1
bin	930	0
bin	940	1
bin	950	0
bin	960	0
bin	970	0
bin	980	4
bin	990	0
bin	1000	0
bin	1010	0
bin	1020	0
bin	1030	0
bin	1040	0
bin	1050	0
bin	1060	0
bin	1070	0
bin	1080	0
bin	1090	1
bin	1100	0
bin	1110	0
bin	1120	0
bin	1130	0
bin	1140	0
bin	1150	0
bin	1160	0
bin	1170	0
bin	1180	0
bin	1190	0
bin	1200	1
bin	1210	0
bin	1220	0
bin	1230	0
bin	1240	0
bin	1250	0
bin	1260	0
bin	1270	0
bin	1280	1
bin	1290	0
bin	1300	0
bin	1310	0
bin	1320	0
bin	1330	0
bin	1340	0
bin	1350	0
bin	1360	0
bin	1370	0
bin	1380	0
bin	1390	0
bin	1400	0
bin	1410	0
bin	1420	0
bin	1430	0
bin	1440	0
bin	1450	0
bin	1460	0
bin	1470	0
bin	1480	0
bin	1490	0
bin	1500	0
bin	1510	0
bin	1520	0
bin	1530	0
bin	1540	0
bin	1550	0
bin	1560	0
bin	1570	0
bin	1580	0
bin	1590	0
bin	1600	0
statistic PolicyB.queue2 "local interarrival times"
field count 116
field mean 360.79943965517
field stddev 328.51160426684
field min 21.953
field max 1850.441
field sum 41852.735
field sqrsum 27511228.861903
bin	-inf	0
bin	0	0
bin	10	0
bin	20	5
bin	30	1
bin	40	0
bin	50	4
bin	60	3
bin	70	1
bin	80	2
bin	90	3
bin	100	5
bin	110	4
bin	120	1
bin	130	1
bin	140	5
bin	150	1
bin	160	2
bin	170	1
bin	180	4
bin	190	2
bin	200	3
bin	210	4
bin	220	0
bin	230	2
bin	240	3
bin	250	2
bin	260	4
bin	270	3
bin	280	0
bin	290	1
bin	300	3
bin	310	1
bin	320	2
bin	330	0
bin	340	1
bin	350	0
bin	360	1
bin	370	1
bin	380	2
bin	390	1
bin	400	2
bin	410	1
bin	420	0
bin	430	0
bin	440	1
bin	450	1
bin	460	0
bin	470	0
bin	480	2
bin	490	1
bin	500	1
bin	510	2
bin	520	0
bin	530	3
bin	540	1
bin	550	1
bin	560	0
bin	570	0
bin	580	0
bin	590	0
bin	600	0
bin	610	1
bin	620	1
bin	630	0
bin	640	1
bin	650	0
bin	660	0
bin	670	0
bin	680	1
bin	690	0
bin	700	0
bin	710	1
bin	720	0
bin	730	0
bin	740	0
bin	750	1
bin	760	2
bin	770	0
bin	780	0
bin	790	0
bin	800	1
bin	810	0
bin	820	0
bin	830	1
bin	840	0
bin	850	1
bin	860	0
bin	870	1
bin	880	0
bin	890	1
bin	900	0
bin	910	0
bin	920	0
bin	930	0
bin	940	1
bin	950	0
bin	960	0
bin	970	1
bin	980	0
bin	990	0
bin	1000	0
bin	1010	1
bin	1020	0
bin	1030	0
bin	1040	0
bin	1050	0
bin	1060	0
bin	1070	0
bin	1080	0
bin	1090	0
bin	1100	0
bin	1110	1
bin	1120	0
bin	1130	0
bin	1140	0
bin	1150	0
bin	1160	0
bin	1170	0
bin	1180	0
bin	1190	1
bin	1200	0
bin	1210	0
bin	1220	0
bin	1230	0
bin	1240	0
bin	1250	1
bin	1260	0
bin	1270	0
bin	1280	0
bin	1290	0
bin	1300	0
bin	1310	0
bin	1320	0
bin	1330	0
bin	1340	0
bin	1350	0
bin	1360	0
bin	1370	0
bin	1380	0
bin	1390	0
bin	1400	0
bin	1410	0
bin	1420	0
bin	1430	0
bin	1440	0
bin	1450	0
bin	1460	1
bin	1470	0
bin	1480	0
bin	1490	0
bin	1500	0
bin	1510	0
bin	1520	0
bin	1530	0
bin	1540	0
bin	1550	0
bin	1560	0
bin	1570	0
bin	1580	0
bin	1590	0
bin	1600	0
bin	1610	0
bin	1620	0
bin	1630	0
bin	1640	0
bin	1650	0
bin	1660	0
bin	1670	0
bin	1680	0
bin	1690	0
bin	1700	0
bin	1710	0
bin	1720	0
bin	1730	0
bin	1740	0
bin	1750	0
bin	1760	0
bin	1770	0
bin	1780	0
bin	1790	0
bin	1800	0
bin	1810	0
bin	1820	0
bin	1830	0
bin	1840	0
bin	1850	1
bin	1860	0
bin	1870	0
bin	1880	0
bin	1890	0
bin	1900	0
bin	1910	0
bin	1920	0
bin	1930	0
bin	1940	0
bin	1950	0
bin	1960	0
bin	1970	0
bin	1980	0
bin	1990	0
bin	2000	0
bin	2010	0
bin	2020	0
bin	2030	0
bin	2040	0
bin	2050	0
bin	2060	0
bin	2070	0
bin	2080	0
bin	2090	0
bin	2100	0
bin	2110	0
bin	2120	0
bin	2130	0
bin	2140	0
bin	2150	0
bin	2160	0
bin	2170	0
bin	2180	0
bin	2190	0
bin	2200	0
bin	2210	0
bin	2220	0
bin	2230	0
bin	2240	0
bin	2250	0
bin	2260	0
bin	2270	0
bin	2280	0
bin	2290	0
bin	2300	0
bin	2310	0
statistic PolicyB.queue2 "processing times"
field count 115
field mean 325.80542608696
field stddev 355.39216979406
field min 30.486
field max 1616.078
field sum 37467.624
field sqrsum 26605764.957792
bin	-inf	0
bin	0	0
bin	10	0
bin	20	0
bin	30	8
bin	40	3
bin	50	1
bin	60	8
bin	70	0
bin	80	4
bin	90	5
bin	100	5
bin	110	3
bin	120	3
bin	130	3
bin	140	5
bin	150	2
bin	160	1
bin	170	3
bin	180	5
bin	190	1
bin	200	0
bin	210	1
bin	220	1
bin	230	1
bin	240	2
bin	250	3
bin	260	1
bin	270	1
bin	280	2
bin	290	1
bin	300	2
bin	310	0
bin	320	0
bin	330	2
bin	340	2
bin	350	2
bin	360	2
bin	370	3
bin	380	1
bin	390	1
bin	400	2
bin	410	0
bin	420	0
bin	430	2
bin	440	0
bin	450	1
bin	460	1
bin	470	0
bin	480	0
bin	490	2
bin	500	1
bin	510	1
bin	520	1
bin	530	0
bin	540	0
bin	550	0
bin	560	0
bin	570	1
bin	580	0
bin	590	0
bin	600	0
bin	610	1
bin	620	0
bin	630	0
bin	640	0
bin	650	0
bin	660	0
bin	670	0
bin	680	0
bin	690	0
bin	700	0
bin	710	0
bin	720	0
bin	730	0
bin	740	0
bin	750	0
bin	760	1
bin	770	1
bin	780	0
bin	790	1
bin	800	0
bin	810	0
bin	820	0
bin	830	0
bin	840	1
bin	850	0
bin	860	0
bin	870	0
bin	880	0
bin	890	1
bin	900	0
bin	910	0
bin	920	0
bin	930	1
bin	940	0
bin	950	0
bin	960	0
bin	970	0
bin	980	0
bin	990	0
bin	1000	0
bin	1010	0
bin	1020	0
bin	1030	0
bin	1040	0
bin	1050	0
bin	1060	0
bin	1070	0
bin	1080	0
bin	1090	0
bin	1100	0
bin	1110	0
bin	1120	0
bin	1130	0
bin	1140	0
bin	1150	0
bin	1160	0
bin	1170	1
bin	1180	0
bin	1190	0
bin	1200	0
bin	1210	0
bin	1220	0
bin	1230	0
bin	1240	1
bin	1250	0
bin	1260	0
bin	1270	0
bin	1280	0
bin	1290	1
bin	1300	0
bin	1310	1
bin	1320	0
bin	1330	0
bin	1340	0
bin	1350	0
bin	1360	0
bin	1370	0
bin	1380	0
bin	1390	0
bin	1400	1
bin	1410	0
bin	1420	0
bin	1430	0
bin	1440	0
bin	1450	0
bin	1460	0
bin	1470	1
bin	1480	0
bin	1490	0
bin	1500	0
bin	1510	0
bin	1520	0
bin	1530	0
bin	1540	0
bin	1550	0
bin	1560	0
bin	1570	0
bin	1580	0
bin	1590	0
bin	1600	1
bin	1610	1
bin	1620	0
bin	1630	0
bin	1640	0
bin	1650	0
bin	1660	0
bin	1670	0
bin	1680	0
bin	1690	0
bin	1700	0
bin	1710	0
bin	1720	0
bin	1730	0
bin	1740	0
bin	1750	0
bin	1760	0
bin	1770	0
bin	1780	0
bin	1790	0
bin	1800	0
bin	1810	0
bin	1820	0
bin	1830	0
bin	1840	0
bin	1850	0
bin	1860	0
bin	1870	0
bin	1880	0
bin	1890	0
bin	1900	0
bin	1910	0
bin	1920	0
bin	1930	0
bin	1940	0
bin	1950	0
bin	1960	0
bin	1970	0
bin	1980	0
bin	1990	0
bin	2000	0
bin	2010	0
bin	2020	0
statistic PolicyB.queue3 "local interarrival times"
field count 137
field mean 313.88427737226
field stddev 268.52562986984
field min 1.935
field max 1562.775
field sum 43002.146
field sqrsum 23304115.412658
bin	-inf	0
bin	0	3
bin	30	6
bin	60	11
bin	90	11
bin	120	7
bin	150	15
bin	180	8
bin	210	9
bin	240	11
bin	270	5
bin	300	7
bin	330	6
bin	360	2
bin	390	3
bin	420	5
bin	450	1
bin	480	2
bin	510	0
bin	540	4
bin	570	2
bin	600	3
bin	630	1
bin	660	1
bin	690	2
bin	720	1
bin	750	2
bin	780	2
bin	810	0
bin	840	0
bin	870	0
bin	900	1
bin	930	1
bin	960	2
bin	990	0
bin	1020	1
bin	1050	0
bin	1080	0
bin	1110	0
bin	1140	0
bin	1170	0
bin	1200	0
bin	1230	0
bin	1260	0
bin	1290	0
bin	1320	0
bin	1350	1
bin	1380	0
bin	1410	0
bin	1440	0
bin	1470	0
bin	1500	0
bin	1530	0
bin	1560	1
bin	1590	0
statistic PolicyB.queue3 "processing times"
field count 136
field mean 255.02648529412
field stddev 257.08895553635
field min 31.379
field max 1345.788
field sum 34683.602
field sqrsum 17768025.808334
bin	-inf	0
bin	0	0
bin	10	0
bin	20	0
bin	30	6
bin	40	3
bin	50	7
bin	60	9
bin	70	8
bin	80	3
bin	90	4
bin	100	6
bin	110	6
bin	120	5
bin	130	6
bin	140	4
bin	150	5
bin	160	0
bin	170	1
bin	180	1
bin	190	3
bin	200	4
bin	210	3
bin	220	2
bin	230	2
bin	240	2
bin	250	1
bin	260	4
bin	270	1
bin	280	2
bin	290	1
bin	300	3
bin	310	0
bin	320	0
bin	330	1
bin	340	1
bin	350	0
bin	360	1
bin	370	2
bin	380	2
bin	390	3
bin	400	1
bin	410	1
bin	420	1
bin	430	0
bin	440	0
bin	450	0
bin	460	1
bin	470	0
bin	480	2
bin	490	0
bin	500	0
bin	510	1
bin	520	0
bin	530	0
bin	540	1
bin	550	2
bin	560	0
bin	570	0
bin	580	0
bin	590	0
bin	600	2
bin	610	0
bin	620	0
bin	630	0
bin	640	1
bin	650	0
bin	660	0
bin	670	0
bin	680	1
bin	690	0
bin	700	2
bin	710	0
bin	720	0
bin	730	0
bin	740	0
bin	750	1
bin	760	0
bin	770	0
bin	780	0
bin	790	0
bin	800	0
bin	810	0
bin	820	0
bin	830	0
bin	840	1
bin	850	0
bin	860	0
bin	870	0
bin	880	0
bin	890	0
bin	900	1
bin	910	0
bin	920	0
bin	930	0
bin	940	0
bin	950	1
bin	960	1
bin	970	0
bin	980	0
bin	990	0
bin	1000	0
bin	1010	0
bin	1020	0
bin	1030	0
bin	1040	0
bin	1050	0
bin	1060	0
bin	1070	0
bin	1080	0
bin	1090	0
bin	1100	0
bin	1110	0
bin	1120	0
bin	1130	0
bin	1140	0
bin	1150	0
bin	1160	0
bin	1170	1
bin	1180	0
bin	1190	0
bin	1200	0
bin	1210	0
bin	1220	0
bin	1230	0
bin	1240	0
bin	1250	0
bin	1260	0
bin	1270	0
bin	1280	0
bin	1290	0
bin	1300	0
bin	1310	1
bin	1320	0
bin	1330	0
bin	1340	1
bin	1350	0
bin	1360	0
bin	1370	0
bin	1380	0
bin	1390	0
bin	1400	0
bin	1410	0
bin	1420	0
bin	1430	0
bin	1440	0
bin	1450	0
bin	1460	0
bin	1470	0
bin	1480	0
bin	1490	0
bin	1500	0
bin	1510	0
bin	1520	0
bin	1530	0
bin	1540	0
bin	1550	0
bin	1560	0
bin	1570	0
bin	1580	0
bin	1590	0
bin	1600	0
bin	1610	0
bin	1620	0
bin	1630	0
bin	1640	0
bin	1650	0
bin	1660	0
bin	1670	0
bin	1680	0
statistic PolicyB.queue4 "local interarrival times"
field count 140
field mean 307.72283571429
field stddev 224.68850891089
field min 8.125
field max 1479.136
field sum 43081.197
field sqrsum 20274472.825893
bin	-inf	0
bin	0	1
bin	10	1
bin	20	0
bin	30	1
bin	40	0
bin	50	2
bin	60	6
bin	70	3
bin	80	4
bin	90	1
bin	100	3
bin	110	6
bin	120	5
bin	130	4
bin	140	3
bin	150	3
bin	160	3
bin	170	4
bin	180	3
bin	190	3
bin	200	3
bin	210	4
bin	220	2
bin	230	1
bin	240	1
bin	250	1
bin	260	2
bin	270	3
bin	280	3
bin	290	5
bin	300	5
bin	310	0
bin	320	2
bin	330	3
bin	340	1
bin	350	0
bin	360	0
bin	370	2
bin	380	4
bin	390	2
bin	400	2
bin	410	3
bin	420	1
bin	430	3
bin	440	2
bin	450	0
bin	460	0
bin	470	2
bin	480	2
bin	490	2
bin	500	1
bin	510	1
bin	520	0
bin	530	1
bin	540	1
bin	550	1
bin	560	0
bin	570	3
bin	580	1
bin	590	2
bin	600	0
bin	610	1
bin	620	1
bin	630	1
bin	640	0
bin	650	0
bin	660	0
bin	670	0
bin	680	0
bin	690	0
bin	700	1
bin	710	1
bin	720	0
bin	730	0
bin	740	0
bin	750	2
bin	760	0
bin	770	0
bin	780	0
bin	790	0
bin	800	0
bin	810	0
bin	820	1
bin	830	0
bin	840	1
bin	850	1
bin	860	0
bin	870	0
bin	880	0
bin	890	0
bin	900	0
bin	910	0
bin	920	0
bin	930	0
bin	940	0
bin	950	0
bin	960	1
bin	970	0
bin	980	0
bin	990	0
bin	1000	0
bin	1010	0
bin	1020	0
bin	1030	0
bin	1040	0
bin	1050	0
bin	1060	0
bin	1070	0
bin	1080	0
bin	1090	0
bin	1100	0
bin	1110	0
bin	1120	0
bin	1130	0
bin	1140	0
bin	1150	0
bin	1160	0
bin	1170	0
bin	1180	0
bin	1190	0
bin	1200	0
bin	1210	0
bin	1220	0
bin	1230	0
bin	1240	0
bin	1250	0
bin	1260	0
bin	1270	0
bin	1280	0
bin	1290	0
bin	1300	0
bin	1310	0
bin	1320	0
bin	1330	0
bin	1340	0
bin	1350	0
bin	1360	0
bin	1370	0
bin	1380	0
bin	1390	0
bin	1400	0
bin	1410	0
bin	1420	0
bin	1430	0
bin	1440	0
bin	1450	0
bin	1460	0
bin	1470	1
bin	1480	0
bin	1490	0
bin	1500	0
bin	1510	0
bin	1520	0
bin	1530	0
bin	1540	0
bin	1550	0
bin	1560	0
bin	1570	0
bin	1580	0
bin	1590	0
bin	1600	0
bin	1610	0
bin	1620	0
bin	1630	0
bin	1640	0
bin	1650	0
bin	1660	0
bin	1670	0
bin	1680	0
bin	1690	0
bin	1700	0
bin	1710	0
bin	1720	0
bin	1730	0
bin	1740	0
bin	1750	0
bin	1760	0
bin	1770	0
bin	1780	0
bin	1790	0
bin	1800	0
bin	1810	0
bin	1820	0
bin	1830	0
bin	1840	0
bin	1850	0
statistic PolicyB.queue4 "processing times"
field count 139
field mean 259.03400719424
field stddev 214.80659734638
field min 30.909
field max 1228.734
field sum 36005.727
field sqrsum 15694286.395119
bin	-inf	0
bin	0	0
bin	30	16
bin	60	16
bin	90	7
bin	120	15
bin	150	8
bin	180	12
bin	210	6
bin	240	10
bin	270	6
bin	300	4
bin	330	1
bin	360	9
bin	390	3
bin	420	4
bin	450	3
bin	480	6
bin	510	1
bin	540	1
bin	570	3
bin	600	0
bin	630	0
bin	660	0
bin	690	2
bin	720	0
bin	750	0
bin	780	3
bin	810	0
bin	840	0
bin	870	0
bin	900	0
bin	930	1
bin	960	0
bin	990	0
bin	1020	1
bin	1050	0
bin	1080	0
bin	1110	0
bin	1140	0
bin	1170	0
bin	1200	1
bin	1230	0
statistic PolicyB.queue5 "local interarrival times"
field count 141
field mean 303.99878723404
field stddev 228.50637632281
field min 0
field max 1000.01
field sum 42863.829
field sqrsum 20340674.995033
bin	-inf	0
bin	0	2
bin	10	0
bin	20	2
bin	30	0
bin	40	2
bin	50	1
bin	60	1
bin	70	5
bin	80	4
bin	90	6
bin	100	4
bin	110	4
bin	120	8
bin	130	3
bin	140	2
bin	150	3
bin	160	2
bin	170	3
bin	180	0
bin	190	4
bin	200	4
bin	210	3
bin	220	5
bin	230	2
bin	240	4
bin	250	0
bin	260	1
bin	270	2
bin	280	4
bin	290	5
bin	300	3
bin	310	2
bin	320	2
bin	330	3
bin	340	2
bin	350	2
bin	360	1
bin	370	1
bin	380	2
bin	390	1
bin	400	2
bin	410	3
bin	420	0
bin	430	2
bin	440	2
bin	450	1
bin	460	0
bin	470	0
bin	480	1
bin	490	1
bin	500	0
bin	510	0
bin	520	0
bin	530	1
bin	540	1
bin	550	0
bin	560	1
bin	570	0
bin	580	0
bin	590	2
bin	600	0
bin	610	0
bin	620	3
bin	630	1
bin	640	1
bin	650	0
bin	660	0
bin	670	1
bin	680	0
bin	690	0
bin	700	3
bin	710	0
bin	720	1
bin	730	0
bin	740	1
bin	750	0
bin	760	0
bin	770	1
bin	780	0
bin	790	0
bin	800	0
bin	810	2
bin	820	0
bin	830	0
bin	840	0
bin	850	0
bin	860	0
bin	870	0
bin	880	0
bin	890	1
bin	900	1
bin	910	0
bin	920	0
bin	930	0
bin	940	1
bin	950	0
bin	960	0
bin	970	0
bin	980	0
bin	990	1
bin	1000	1
bin	1010	0
bin	1020	0
bin	1030	0
bin	1040	0
bin	1050	0
bin	1060	0
bin	1070	0
bin	1080	0
bin	1090	0
bin	1100	0
bin	1110	0
bin	1120	0
bin	1130	0
bin	1140	0
bin	1150	0
bin	1160	0
bin	1170	0
bin	1180	0
bin	1190	0
bin	1200	0
bin	1210	0
bin	1220	0
bin	1230	0
bin	1240	0
bin	1250	0
bin	1260	0
statistic PolicyB.queue5 "processing times"
field count 140
field mean 247.53738571429
field stddev 204.06976567428
field min 31.438
field max 1014.388
field sum 34655.234
field sqrsum 14367047.253144
bin	-inf	0
bin	0	0
bin	10	0
bin	20	0
bin	30	6
bin	40	6
bin	50	5
bin	60	5
bin	70	7
bin	80	2
bin	90	4
bin	100	2
bin	110	10
bin	120	5
bin	130	3
bin	140	5
bin	150	2
bin	160	4
bin	170	4
bin	180	4
bin	190	3
bin	200	3
bin	210	2
bin	220	2
bin	230	1
bin	240	3
bin	250	4
bin	260	1
bin	270	3
bin	280	1
bin	290	0
bin	300	0
bin	310	2
bin	320	4
bin	330	3
bin	340	1
bin	350	2
bin	360	0
bin	370	1
bin	380	3
bin	390	0
bin	400	1
bin	410	3
bin	420	0
bin	430	2
bin	440	0
bin	450	0
bin	460	0
bin	470	0
bin	480	4
bin	490	0
bin	500	0
bin	510	0
bin	520	1
bin	530	0
bin	540	2
bin	550	1
bin	560	1
bin	570	0
bin	580	0
bin	590	0
bin	600	0
bin	610	0
bin	620	2
bin	630	1
bin	640	0
bin	650	0
bin	660	1
bin	670	0
bin	680	1
bin	690	2
bin	700	0
bin	710	0
bin	720	0
bin	730	1
bin	740	0
bin	750	1
bin	760	1
bin	770	0
bin	780	0
bin	790	0
bin	800	0
bin	810	0
bin	820	0
bin	830	0
bin	840	0
bin	850	0
bin	860	0
bin	870	0
bin	880	0
bin	890	0
bin	900	0
bin	910	0
bin	920	0
bin	930	1
bin	940	0
bin	950	0
bin	960	0
bin	970	0
bin	980	0
bin	990	0
bin	1000	0
bin	1010	1
bin	1020	0
bin	1030	0
bin	1040	0
bin	1050	0
bin	1060	0
bin	1070	0
bin	1080	0
bin	1090	0
bin	1100	0
bin	1110	0
bin	1120	0
bin	1130	0
bin	1140	0
bin	1150	0
bin	1160	0
bin	1170	0
bin	1180	0
bin	1190	0
bin	1200	0
bin	1210	0
bin	1220	0
bin	1230	0
bin	1240	0
bin	1250	0
bin	1260	0
bin	1270	0
statistic PolicyB.queue6 "local interarrival times"
field count 135
field mean 318.83661481481
field stddev 247.78698907367
field min 11.042
field max 1418.574
field sum 43042.943
field sqrsum 21951050.759649
bin	-inf	0
bin	0	0
bin	10	1
bin	20	1
bin	30	1
bin	40	2
bin	50	3
bin	60	3
bin	70	1
bin	80	5
bin	90	3
bin	100	4
bin	110	2
bin	120	3
bin	130	3
bin	140	2
bin	150	6
bin	160	3
bin	170	3
bin	180	5
bin	190	5
bin	200	2
bin	210	2
bin	220	4
bin	230	1
bin	240	3
bin	250	1
bin	260	2
bin	270	2
bin	280	2
bin	290	3
bin	300	2
bin	310	4
bin	320	1
bin	330	1
bin	340	0
bin	350	1
bin	360	1
bin	370	0
bin	380	4
bin	390	1
bin	400	3
bin	410	3
bin	420	3
bin	430	1
bin	440	2
bin	450	1
bin	460	3
bin	470	1
bin	480	0
bin	490	1
bin	500	4
bin	510	1
bin	520	0
bin	530	0
bin	540	1
bin	550	0
bin	560	0
bin	570	0
bin	580	0
bin	590	0
bin	600	1
bin	610	3
bin	620	1
bin	630	0
bin	640	0
bin	650	2
bin	660	0
bin	670	2
bin	680	0
bin	690	0
bin	700	0
bin	710	0
bin	720	1
bin	730	0
bin	740	0
bin	750	1
bin	760	0
bin	770	0
bin	780	0
bin	790	0
bin	800	0
bin	810	0
bin	820	0
bin	830	1
bin	840	0
bin	850	1
bin	860	0
bin	870	1
bin	880	0
bin	890	1
bin	900	0
bin	910	0
bin	920	0
bin	930	0
bin	940	0
bin	950	0
bin	960	0
bin	970	0
bin	980	0
bin	990	0
bin	1000	0
bin	1010	0
bin	1020	0
bin	1030	0
bin	1040	0
bin	1050	1
bin	1060	0
bin	1070	0
bin	1080	0
bin	1090	0
bin	1100	0
bin	1110	0
bin	1120	0
bin	1130	0
bin	1140	0
bin	1150	0
bin	1160	0
bin	1170	0
bin	1180	0
bin	1190	0
bin	1200	0
bin	1210	0
bin	1220	0
bin	1230	0
bin	1240	0
bin	1250	0
bin	1260	0
bin	1270	0
bin	1280	0
bin	1290	0
bin	1300	0
bin	1310	0
bin	1320	0
bin	1330	0
bin	1340	0
bin	1350	1
bin	1360	0
bin	1370	0
bin	1380	0
bin	1390	0
bin	1400	0
bin	1410	1
bin	1420	0
bin	1430	0
bin	1440	0
bin	1450	0
bin	1460	0
bin	1470	0
bin	1480	0
bin	1490	0
bin	1500	0
bin	1510	0
bin	1520	0
bin	1530	0
bin	1540	0
bin	1550	0
bin	1560	0
bin	1570	0
bin	1580	0
bin	1590	0
bin	1600	0
bin	1610	0
bin	1620	0
bin	1630	0
bin	1640	0
bin	1650	0
bin	1660	0
bin	1670	0
bin	1680	0
bin	1690	0
bin	1700	0
bin	1710	0
bin	1720	0
bin	1730	0
bin	1740	0
bin	1750	0
bin	1760	0
bin	1770	0
statistic PolicyB.queue6 "processing times"
field count 135
field mean 252.61824444444
field stddev 206.48874760486
field min 36.351
field max 1248.923
field sum 34103.463
field sqrsum 14328595.739451
bin	-inf	0
bin	0	0
bin	10	0
bin	20	0
bin	30	5
bin	40	6
bin	50	3
bin	60	6
bin	70	3
bin	80	5
bin	90	4
bin	100	3
bin	110	5
bin	120	3
bin	130	3
bin	140	4
bin	150	2
bin	160	4
bin	170	4
bin	180	6
bin	190	4
bin	200	3
bin	210	3
bin	220	1
bin	230	3
bin	240	4
bin	250	4
bin	260	1
bin	270	2
bin	280	4
bin	290	2
bin	300	1
bin	310	1
bin	320	2
bin	330	1
bin	340	2
bin	350	1
bin	360	2
bin	370	0
bin	380	0
bin	390	2
bin	400	2
bin	410	1
bin	420	1
bin	430	3
bin	440	0
bin	450	1
bin	460	1
bin	470	0
bin	480	1
bin	490	1
bin	500	0
bin	510	0
bin	520	0
bin	530	1
bin	540	2
bin	550	1
bin	560	0
bin	570	2
bin	580	1
bin	590	1
bin	600	1
bin	610	0
bin	620	1
bin	630	0
bin	640	0
bin	650	0
bin	660	0
bin	670	0
bin	680	0
bin	690	0
bin	700	0
bin	710	0
bin	720	0
bin	730	0
bin	740	0
bin	750	0
bin	760	0
bin	770	0
bin	780	0
bin	790	0
bin	800	0
bin	810	0
bin	820	1
bin	830	0
bin	840	0
bin	850	0
bin	860	0
bin	870	2
bin	880	0
bin	890	0
bin	900	0
bin	910	0
bin	920	0
bin	930	1
bin	940	0
bin	950	0
bin	960	0
bin	970	0
bin	980	0
bin	990	0
bin	1000	0
bin	1010	0
bin	1020	0
bin	1030	0
bin	1040	0
bin	1050	0
bin	1060	0
bin	1070	0
bin	1080	0
bin	1090	0
bin	1100	0
bin	1110	0
bin	1120	0
bin	1130	0
bin	1140	0
bin	1150	0
bin	1160	0
bin	1170	0
bin	1180	0
bin	1190	0
bin	1200	0
bin	1210	0
bin	1220	0
bin	1230	0
bin	1240	1
bin	1250	0
bin	1260	0
bin	1270	0
bin	1280	0
bin	1290	0
bin	1300	0
bin	1310	0
bin	1320	0
bin	1330	0
bin	1340	0
bin	1350	0
bin	1360	0
bin	1370	0
bin	1380	0
bin	1390	0
bin	1400	0
bin	1410	0
bin	1420	0
bin	1430	0
bin	1440	0
bin	1450	0
bin	1460	0
bin	1470	0
bin	1480	0
bin	1490	0
bin	1500	0
bin	1510	0
bin	1520	0
bin	1530	0
bin	1540	0
bin	1550	0
bin	1560	0
statistic PolicyB.queue7 "local interarrival times"
field count 304
field mean 141.50795394737
field stddev 79.587721758515
field min 2.854
field max 543.284
field sum 43018.418
field sqrsum 8006712.56601
bin	-inf	0
bin	0	2
bin	10	8
bin	20	5
bin	30	2
bin	40	8
bin	50	13
bin	60	10
bin	70	15
bin	80	19
bin	90	20
bin	100	16
bin	110	16
bin	120	20
bin	130	18
bin	140	17
bin	150	11
bin	160	15
bin	170	11
bin	180	12
bin	190	6
bin	200	11
bin	210	3
bin	220	8
bin	230	4
bin	240	5
bin	250	2
bin	260	6
bin	270	3
bin	280	6
bin	290	2
bin	300	2
bin	310	0
bin	320	0
bin	330	0
bin	340	3
bin	350	1
bin	360	0
bin	370	0
bin	380	0
bin	390	0
bin	400	1
bin	410	0
bin	420	1
bin	430	0
bin	440	0
bin	450	1
bin	460	0
bin	470	0
bin	480	0
bin	490	0
bin	500	0
bin	510	0
bin	520	0
bin	530	0
bin	540	1
bin	550	0
bin	560	0
bin	570	0
bin	580	0
bin	590	0
bin	600	0
bin	610	0
bin	620	0
bin	630	0
bin	640	0
bin	650	0
bin	660	0
bin	670	0
bin	680	0
statistic PolicyB.queue7 "processing times"
field count 304
field mean 89.445835526316
field stddev 38.082981867756
field min 30.929
field max 203.795
field sum 27191.534
field sqrsum 2871614.470778
bin	-inf	0
bin	0	0
bin	10	0
bin	20	0
bin	30	20
bin	40	22
bin	50	24
bin	60	55
bin	70	33
bin	80	22
bin	90	26
bin	100	21
bin	110	20
bin	120	9
bin	130	12
bin	140	9
bin	150	11
bin	160	9
bin	170	10
bin	180	0
bin	190	0
bin	200	1
bin	210	0
bin	220	0
statistic PolicyB.queue8 "local interarrival times"
field count 300
field mean 143.74124
field stddev 80.632135452402
field min 2.682
field max 473.698
field sum 43122.372
field sqrsum 8142424.062038
bin	-inf	0
bin	0	2
bin	10	0
bin	20	2
bin	30	5
bin	40	10
bin	50	12
bin	60	13
bin	70	25
bin	80	14
bin	90	15
bin	100	18
bin	110	21
bin	120	13
bin	130	17
bin	140	17
bin	150	17
bin	160	12
bin	170	11
bin	180	7
bin	190	10
bin	200	10
bin	210	7
bin	220	5
bin	230	0
bin	240	5
bin	250	2
bin	260	6
bin	270	3
bin	280	4
bin	290	4
bin	300	3
bin	310	0
bin	320	3
bin	330	1
bin	340	0
bin	350	0
bin	360	0
bin	370	0
bin	380	0
bin	390	0
bin	400	1
bin	410	1
bin	420	0
bin	430	1
bin	440	1
bin	450	1
bin	460	0
bin	470	1
bin	480	0
bin	490	0
bin	500	0
bin	510	0
bin	520	0
bin	530	0
bin	540	0
bin	550	0
bin	560	0
bin	570	0
bin	580	0
bin	590	0
bin	600	0
statistic PolicyB.queue8 "processing times"
field count 299
field mean 91.557658862876
field stddev 38.485329325767
field min 30.085
field max 178.396
field sum 27375.74
field sqrsum 2947832.594886
bin	-inf	0
bin	0	0
bin	10	0
bin	20	0
bin	30	22
bin	40	22
bin	50	9
bin	60	51
bin	70	39
bin	80	26
bin	90	23
bin	100	16
bin	110	16
bin	120	15
bin	130	18
bin	140	13
bin	150	8
bin	160	14
bin	170	7
bin	180	0
bin	190	0
bin	200	0
bin	210	0
bin	220	0
statistic PolicyB.queue9 "local interarrival times"
field count 299
field mean 143.82239130435
field stddev 91.111319499115
field min 4.533
field max 587.843
field sum 43002.895
field sqrsum 8658558.409089
bin	-inf	0
bin	0	3
bin	10	6
bin	20	3
bin	30	6
bin	40	15
bin	50	9
bin	60	14
bin	70	11
bin	80	15
bin	90	23
bin	100	19
bin	110	18
bin	120	14
bin	130	19
bin	140	13
bin	150	8
bin	160	9
bin	170	12
bin	180	16
bin	190	7
bin	200	7
bin	210	4
bin	220	1
bin	230	5
bin	240	3
bin	250	12
bin	260	4
bin	270	4
bin	280	0
bin	290	4
bin	300	1
bin	310	2
bin	320	2
bin	330	1
bin	340	2
bin	350	0
bin	360	1
bin	370	0
bin	380	0
bin	390	0
bin	400	0
bin	410	0
bin	420	1
bin	430	0
bin	440	0
bin	450	0
bin	460	2
bin	470	0
bin	480	0
bin	490	0
bin	500	0
bin	510	0
bin	520	0
bin	530	1
bin	540	0
bin	550	0
bin	560	0
bin	570	1
bin	580	1
bin	590	0
bin	600	0
bin	610	0
bin	620	0
bin	630	0
bin	640	0
bin	650	0
bin	660	0
bin	670	0
statistic PolicyB.queue9 "processing times"
field count 299
field mean 88.46697993311
field stddev 36.812135741244
field min 30.124
field max 179.335
field sum 26451.627
field sqrsum 2743925.289681
bin	-inf	0
bin	0	0
bin	10	0
bin	20	0
bin	30	18
bin	40	28
bin	50	28
bin	60	40
bin	70	35
bin	80	17
bin	90	28
bin	100	16
bin	110	24
bin	120	17
bin	130	15
bin	140	11
bin	150	12
bin	160	5
bin	170	5
bin	180	0
bin	190	0
bin	200	0
bin	210	0
bin	220	0

