version 2
run General-0-20220104-02:30:42-7120
attr configname General
attr datetime 20220104-02:30:42
attr experiment General
attr inifile omnetpp.ini
attr iterationvars ""
attr iterationvarsf ""
attr measurement ""
attr network TheCarrefour
attr processid 7120
attr repetition 0
attr replication #0
attr resultdir results
attr runnumber 0
attr seedset 0

statistic TheCarrefour.queue "inter arrival times"
field count 17
field mean 0.87835294117647
field stddev 0.58440674418341
field min 0
field max 2.224
field sum 14.932
field sqrsum 18.580066
bin	-inf	0
bin	-1.112	0
bin	-0.96373333333333	0
bin	-0.81546666666667	0
bin	-0.6672	0
bin	-0.51893333333333	0
bin	-0.37066666666667	0
bin	-0.2224	0
bin	-0.074133333333333	2
bin	0.074133333333333	0
bin	0.2224	1
bin	0.37066666666667	2
bin	0.51893333333333	1
bin	0.6672	3
bin	0.81546666666667	2
bin	0.96373333333333	2
bin	1.112	1
bin	1.2602666666667	0
bin	1.4085333333333	0
bin	1.5568	1
bin	1.7050666666667	1
bin	1.8533333333333	0
bin	2.0016	0
bin	2.1498666666667	1
bin	2.2981333333333	0
bin	2.4464	0
bin	2.5946666666667	0
bin	2.7429333333333	0
bin	2.8912	0
bin	3.0394666666667	0
bin	3.1877333333333	0
bin	3.336	0
statistic TheCarrefour.till0 "interarrival times"
field count 0
field mean nan
field stddev nan
field min nan
field max nan
field sum 0
field sqrsum 0
bin	-inf	0
bin	-0.5	0
bin	-0.46666666666667	0
bin	-0.43333333333333	0
bin	-0.4	0
bin	-0.36666666666667	0
bin	-0.33333333333333	0
bin	-0.3	0
bin	-0.26666666666667	0
bin	-0.23333333333333	0
bin	-0.2	0
bin	-0.16666666666667	0
bin	-0.13333333333333	0
bin	-0.1	0
bin	-0.066666666666667	0
bin	-0.033333333333333	0
bin	0	0
bin	0.033333333333333	0
bin	0.066666666666667	0
bin	0.1	0
bin	0.13333333333333	0
bin	0.16666666666667	0
bin	0.2	0
bin	0.23333333333333	0
bin	0.26666666666667	0
bin	0.3	0
bin	0.33333333333333	0
bin	0.36666666666667	0
bin	0.4	0
bin	0.43333333333333	0
bin	0.46666666666667	0
bin	0.5	0
statistic TheCarrefour.till1 "interarrival times"
field count 0
field mean nan
field stddev nan
field min nan
field max nan
field sum 0
field sqrsum 0
bin	-inf	0
bin	-0.5	0
bin	-0.46666666666667	0
bin	-0.43333333333333	0
bin	-0.4	0
bin	-0.36666666666667	0
bin	-0.33333333333333	0
bin	-0.3	0
bin	-0.26666666666667	0
bin	-0.23333333333333	0
bin	-0.2	0
bin	-0.16666666666667	0
bin	-0.13333333333333	0
bin	-0.1	0
bin	-0.066666666666667	0
bin	-0.033333333333333	0
bin	0	0
bin	0.033333333333333	0
bin	0.066666666666667	0
bin	0.1	0
bin	0.13333333333333	0
bin	0.16666666666667	0
bin	0.2	0
bin	0.23333333333333	0
bin	0.26666666666667	0
bin	0.3	0
bin	0.33333333333333	0
bin	0.36666666666667	0
bin	0.4	0
bin	0.43333333333333	0
bin	0.46666666666667	0
bin	0.5	0
statistic TheCarrefour.till2 "interarrival times"
field count 0
field mean nan
field stddev nan
field min nan
field max nan
field sum 0
field sqrsum 0
bin	-inf	0
bin	-0.5	0
bin	-0.46666666666667	0
bin	-0.43333333333333	0
bin	-0.4	0
bin	-0.36666666666667	0
bin	-0.33333333333333	0
bin	-0.3	0
bin	-0.26666666666667	0
bin	-0.23333333333333	0
bin	-0.2	0
bin	-0.16666666666667	0
bin	-0.13333333333333	0
bin	-0.1	0
bin	-0.066666666666667	0
bin	-0.033333333333333	0
bin	0	0
bin	0.033333333333333	0
bin	0.066666666666667	0
bin	0.1	0
bin	0.13333333333333	0
bin	0.16666666666667	0
bin	0.2	0
bin	0.23333333333333	0
bin	0.26666666666667	0
bin	0.3	0
bin	0.33333333333333	0
bin	0.36666666666667	0
bin	0.4	0
bin	0.43333333333333	0
bin	0.46666666666667	0
bin	0.5	0

